<?xml version="1.0" encoding="UTF-8" standalone="yes"?>
<template encoding-version="1.3">
    <description></description>
    <groupId>34817a37-0187-1000-abd8-ab630ed147b9</groupId>
    <name>PCO nifi flow</name>
    <snippet>
        <connections>
            <id>11a33aeb-8244-3151-0000-000000000000</id>
            <parentGroupId>a2b140c6-2907-3d50-0000-000000000000</parentGroupId>
            <versionedComponentId>11a33aeb-8244-3151-9cdd-20d978c4e4c9</versionedComponentId>
            <backPressureDataSizeThreshold>1 GB</backPressureDataSizeThreshold>
            <backPressureObjectThreshold>10000</backPressureObjectThreshold>
            <destination>
                <groupId>a2b140c6-2907-3d50-0000-000000000000</groupId>
                <id>43bd5edb-9ea0-34e8-0000-000000000000</id>
                <type>PROCESSOR</type>
                <versionedComponentId>43bd5edb-9ea0-34e8-9deb-17236bdadb02</versionedComponentId>
            </destination>
            <flowFileExpiration>0 sec</flowFileExpiration>
            <labelIndex>1</labelIndex>
            <loadBalanceCompression>DO_NOT_COMPRESS</loadBalanceCompression>
            <loadBalancePartitionAttribute></loadBalancePartitionAttribute>
            <loadBalanceStatus>LOAD_BALANCE_NOT_CONFIGURED</loadBalanceStatus>
            <loadBalanceStrategy>DO_NOT_LOAD_BALANCE</loadBalanceStrategy>
            <name></name>
            <selectedRelationships>Message</selectedRelationships>
            <source>
                <groupId>a2b140c6-2907-3d50-0000-000000000000</groupId>
                <id>e12064e2-4967-3b14-0000-000000000000</id>
                <type>PROCESSOR</type>
                <versionedComponentId>e12064e2-4967-3b14-b149-66908ebcd42c</versionedComponentId>
            </source>
            <zIndex>0</zIndex>
        </connections>
        <connections>
            <id>29197faf-63db-3262-0000-000000000000</id>
            <parentGroupId>a2b140c6-2907-3d50-0000-000000000000</parentGroupId>
            <versionedComponentId>29197faf-63db-3262-b262-571339cd6ff6</versionedComponentId>
            <backPressureDataSizeThreshold>1 GB</backPressureDataSizeThreshold>
            <backPressureObjectThreshold>10000</backPressureObjectThreshold>
            <destination>
                <groupId>a2b140c6-2907-3d50-0000-000000000000</groupId>
                <id>327bd05d-b956-3d26-0000-000000000000</id>
                <type>PROCESSOR</type>
                <versionedComponentId>327bd05d-b956-3d26-96d5-8e21ef52d5e5</versionedComponentId>
            </destination>
            <flowFileExpiration>0 sec</flowFileExpiration>
            <labelIndex>1</labelIndex>
            <loadBalanceCompression>DO_NOT_COMPRESS</loadBalanceCompression>
            <loadBalancePartitionAttribute></loadBalancePartitionAttribute>
            <loadBalanceStatus>LOAD_BALANCE_NOT_CONFIGURED</loadBalanceStatus>
            <loadBalanceStrategy>DO_NOT_LOAD_BALANCE</loadBalanceStrategy>
            <name></name>
            <selectedRelationships>Message</selectedRelationships>
            <source>
                <groupId>a2b140c6-2907-3d50-0000-000000000000</groupId>
                <id>86659d90-ec70-3c58-0000-000000000000</id>
                <type>PROCESSOR</type>
                <versionedComponentId>86659d90-ec70-3c58-90f9-1114e033bf01</versionedComponentId>
            </source>
            <zIndex>0</zIndex>
        </connections>
        <connections>
            <id>54d9480c-d94c-38bb-0000-000000000000</id>
            <parentGroupId>a2b140c6-2907-3d50-0000-000000000000</parentGroupId>
            <versionedComponentId>54d9480c-d94c-38bb-9e18-42cba383c839</versionedComponentId>
            <backPressureDataSizeThreshold>1 GB</backPressureDataSizeThreshold>
            <backPressureObjectThreshold>10000</backPressureObjectThreshold>
            <destination>
                <groupId>a2b140c6-2907-3d50-0000-000000000000</groupId>
                <id>3c965fe0-0cb4-37e6-0000-000000000000</id>
                <type>PROCESSOR</type>
                <versionedComponentId>3c965fe0-0cb4-37e6-830c-44e28066cd5d</versionedComponentId>
            </destination>
            <flowFileExpiration>0 sec</flowFileExpiration>
            <labelIndex>1</labelIndex>
            <loadBalanceCompression>DO_NOT_COMPRESS</loadBalanceCompression>
            <loadBalancePartitionAttribute></loadBalancePartitionAttribute>
            <loadBalanceStatus>LOAD_BALANCE_NOT_CONFIGURED</loadBalanceStatus>
            <loadBalanceStrategy>DO_NOT_LOAD_BALANCE</loadBalanceStrategy>
            <name></name>
            <selectedRelationships>sql</selectedRelationships>
            <source>
                <groupId>a2b140c6-2907-3d50-0000-000000000000</groupId>
                <id>327bd05d-b956-3d26-0000-000000000000</id>
                <type>PROCESSOR</type>
                <versionedComponentId>327bd05d-b956-3d26-96d5-8e21ef52d5e5</versionedComponentId>
            </source>
            <zIndex>0</zIndex>
        </connections>
        <connections>
            <id>9fb34bc7-6d2c-30ce-0000-000000000000</id>
            <parentGroupId>a2b140c6-2907-3d50-0000-000000000000</parentGroupId>
            <versionedComponentId>9fb34bc7-6d2c-30ce-8dc4-a2002dfb0278</versionedComponentId>
            <backPressureDataSizeThreshold>1 GB</backPressureDataSizeThreshold>
            <backPressureObjectThreshold>10000</backPressureObjectThreshold>
            <destination>
                <groupId>a2b140c6-2907-3d50-0000-000000000000</groupId>
                <id>3c965fe0-0cb4-37e6-0000-000000000000</id>
                <type>PROCESSOR</type>
                <versionedComponentId>3c965fe0-0cb4-37e6-830c-44e28066cd5d</versionedComponentId>
            </destination>
            <flowFileExpiration>0 sec</flowFileExpiration>
            <labelIndex>1</labelIndex>
            <loadBalanceCompression>DO_NOT_COMPRESS</loadBalanceCompression>
            <loadBalancePartitionAttribute></loadBalancePartitionAttribute>
            <loadBalanceStatus>LOAD_BALANCE_NOT_CONFIGURED</loadBalanceStatus>
            <loadBalanceStrategy>DO_NOT_LOAD_BALANCE</loadBalanceStrategy>
            <name></name>
            <selectedRelationships>sql</selectedRelationships>
            <source>
                <groupId>a2b140c6-2907-3d50-0000-000000000000</groupId>
                <id>43bd5edb-9ea0-34e8-0000-000000000000</id>
                <type>PROCESSOR</type>
                <versionedComponentId>43bd5edb-9ea0-34e8-9deb-17236bdadb02</versionedComponentId>
            </source>
            <zIndex>0</zIndex>
        </connections>
        <connections>
            <id>b300a7e1-c0c5-3e05-0000-000000000000</id>
            <parentGroupId>a2b140c6-2907-3d50-0000-000000000000</parentGroupId>
            <versionedComponentId>b300a7e1-c0c5-3e05-99c4-fc0d1711754b</versionedComponentId>
            <backPressureDataSizeThreshold>1 GB</backPressureDataSizeThreshold>
            <backPressureObjectThreshold>10000</backPressureObjectThreshold>
            <destination>
                <groupId>a2b140c6-2907-3d50-0000-000000000000</groupId>
                <id>3c965fe0-0cb4-37e6-0000-000000000000</id>
                <type>PROCESSOR</type>
                <versionedComponentId>3c965fe0-0cb4-37e6-830c-44e28066cd5d</versionedComponentId>
            </destination>
            <flowFileExpiration>0 sec</flowFileExpiration>
            <labelIndex>1</labelIndex>
            <loadBalanceCompression>DO_NOT_COMPRESS</loadBalanceCompression>
            <loadBalancePartitionAttribute></loadBalancePartitionAttribute>
            <loadBalanceStatus>LOAD_BALANCE_NOT_CONFIGURED</loadBalanceStatus>
            <loadBalanceStrategy>DO_NOT_LOAD_BALANCE</loadBalanceStrategy>
            <name></name>
            <selectedRelationships>sql</selectedRelationships>
            <source>
                <groupId>a2b140c6-2907-3d50-0000-000000000000</groupId>
                <id>e24a901c-62b8-3100-0000-000000000000</id>
                <type>PROCESSOR</type>
                <versionedComponentId>e24a901c-62b8-3100-8bb3-8c733374913a</versionedComponentId>
            </source>
            <zIndex>0</zIndex>
        </connections>
        <connections>
            <id>cb6c6778-586b-337b-0000-000000000000</id>
            <parentGroupId>a2b140c6-2907-3d50-0000-000000000000</parentGroupId>
            <versionedComponentId>cb6c6778-586b-337b-a8d1-08dcc7e1ba4f</versionedComponentId>
            <backPressureDataSizeThreshold>1 GB</backPressureDataSizeThreshold>
            <backPressureObjectThreshold>10000</backPressureObjectThreshold>
            <destination>
                <groupId>a2b140c6-2907-3d50-0000-000000000000</groupId>
                <id>3c965fe0-0cb4-37e6-0000-000000000000</id>
                <type>PROCESSOR</type>
                <versionedComponentId>3c965fe0-0cb4-37e6-830c-44e28066cd5d</versionedComponentId>
            </destination>
            <flowFileExpiration>0 sec</flowFileExpiration>
            <labelIndex>1</labelIndex>
            <loadBalanceCompression>DO_NOT_COMPRESS</loadBalanceCompression>
            <loadBalancePartitionAttribute></loadBalancePartitionAttribute>
            <loadBalanceStatus>LOAD_BALANCE_NOT_CONFIGURED</loadBalanceStatus>
            <loadBalanceStrategy>DO_NOT_LOAD_BALANCE</loadBalanceStrategy>
            <name></name>
            <selectedRelationships>sql</selectedRelationships>
            <source>
                <groupId>a2b140c6-2907-3d50-0000-000000000000</groupId>
                <id>df198cd5-c0b1-3cc7-0000-000000000000</id>
                <type>PROCESSOR</type>
                <versionedComponentId>df198cd5-c0b1-3cc7-b6e9-7a4a77799927</versionedComponentId>
            </source>
            <zIndex>0</zIndex>
        </connections>
        <connections>
            <id>ee10b7fc-623a-3b54-0000-000000000000</id>
            <parentGroupId>a2b140c6-2907-3d50-0000-000000000000</parentGroupId>
            <versionedComponentId>ee10b7fc-623a-3b54-a6ef-83416376e3ce</versionedComponentId>
            <backPressureDataSizeThreshold>1 GB</backPressureDataSizeThreshold>
            <backPressureObjectThreshold>10000</backPressureObjectThreshold>
            <destination>
                <groupId>a2b140c6-2907-3d50-0000-000000000000</groupId>
                <id>e24a901c-62b8-3100-0000-000000000000</id>
                <type>PROCESSOR</type>
                <versionedComponentId>e24a901c-62b8-3100-8bb3-8c733374913a</versionedComponentId>
            </destination>
            <flowFileExpiration>0 sec</flowFileExpiration>
            <labelIndex>1</labelIndex>
            <loadBalanceCompression>DO_NOT_COMPRESS</loadBalanceCompression>
            <loadBalancePartitionAttribute></loadBalancePartitionAttribute>
            <loadBalanceStatus>LOAD_BALANCE_NOT_CONFIGURED</loadBalanceStatus>
            <loadBalanceStrategy>DO_NOT_LOAD_BALANCE</loadBalanceStrategy>
            <name></name>
            <selectedRelationships>Message</selectedRelationships>
            <source>
                <groupId>a2b140c6-2907-3d50-0000-000000000000</groupId>
                <id>03802f1e-b33f-340b-0000-000000000000</id>
                <type>PROCESSOR</type>
                <versionedComponentId>03802f1e-b33f-340b-935b-05d61b25f641</versionedComponentId>
            </source>
            <zIndex>0</zIndex>
        </connections>
        <connections>
            <id>f004d0ad-9827-3d9d-0000-000000000000</id>
            <parentGroupId>a2b140c6-2907-3d50-0000-000000000000</parentGroupId>
            <versionedComponentId>f004d0ad-9827-3d9d-86d1-e3559740d6c6</versionedComponentId>
            <backPressureDataSizeThreshold>1 GB</backPressureDataSizeThreshold>
            <backPressureObjectThreshold>10000</backPressureObjectThreshold>
            <destination>
                <groupId>a2b140c6-2907-3d50-0000-000000000000</groupId>
                <id>df198cd5-c0b1-3cc7-0000-000000000000</id>
                <type>PROCESSOR</type>
                <versionedComponentId>df198cd5-c0b1-3cc7-b6e9-7a4a77799927</versionedComponentId>
            </destination>
            <flowFileExpiration>0 sec</flowFileExpiration>
            <labelIndex>1</labelIndex>
            <loadBalanceCompression>DO_NOT_COMPRESS</loadBalanceCompression>
            <loadBalancePartitionAttribute></loadBalancePartitionAttribute>
            <loadBalanceStatus>LOAD_BALANCE_NOT_CONFIGURED</loadBalanceStatus>
            <loadBalanceStrategy>DO_NOT_LOAD_BALANCE</loadBalanceStrategy>
            <name></name>
            <selectedRelationships>Message</selectedRelationships>
            <source>
                <groupId>a2b140c6-2907-3d50-0000-000000000000</groupId>
                <id>f8c6fc45-f315-37da-0000-000000000000</id>
                <type>PROCESSOR</type>
                <versionedComponentId>f8c6fc45-f315-37da-95e7-338585647277</versionedComponentId>
            </source>
            <zIndex>0</zIndex>
        </connections>
        <controllerServices>
            <id>14ef1759-3a27-338a-0000-000000000000</id>
            <parentGroupId>a2b140c6-2907-3d50-0000-000000000000</parentGroupId>
            <versionedComponentId>14ef1759-3a27-338a-93e4-bff7a0e9290a</versionedComponentId>
            <bulletinLevel>WARN</bulletinLevel>
            <bundle>
                <artifact>nifi-dbcp-service-nar</artifact>
                <group>org.apache.nifi</group>
                <version>1.20.0</version>
            </bundle>
            <comments></comments>
            <descriptors>
                <entry>
                    <key>Database Connection URL</key>
                    <value>
                        <name>Database Connection URL</name>
                    </value>
                </entry>
                <entry>
                    <key>Database Driver Class Name</key>
                    <value>
                        <name>Database Driver Class Name</name>
                    </value>
                </entry>
                <entry>
                    <key>database-driver-locations</key>
                    <value>
                        <name>database-driver-locations</name>
                    </value>
                </entry>
                <entry>
                    <key>kerberos-user-service</key>
                    <value>
                        <identifiesControllerService>org.apache.nifi.kerberos.KerberosUserService</identifiesControllerService>
                        <name>kerberos-user-service</name>
                    </value>
                </entry>
                <entry>
                    <key>kerberos-credentials-service</key>
                    <value>
                        <identifiesControllerService>org.apache.nifi.kerberos.KerberosCredentialsService</identifiesControllerService>
                        <name>kerberos-credentials-service</name>
                    </value>
                </entry>
                <entry>
                    <key>kerberos-principal</key>
                    <value>
                        <name>kerberos-principal</name>
                    </value>
                </entry>
                <entry>
                    <key>kerberos-password</key>
                    <value>
                        <name>kerberos-password</name>
                    </value>
                </entry>
                <entry>
                    <key>Database User</key>
                    <value>
                        <name>Database User</name>
                    </value>
                </entry>
                <entry>
                    <key>Password</key>
                    <value>
                        <name>Password</name>
                    </value>
                </entry>
                <entry>
                    <key>Max Wait Time</key>
                    <value>
                        <name>Max Wait Time</name>
                    </value>
                </entry>
                <entry>
                    <key>Max Total Connections</key>
                    <value>
                        <name>Max Total Connections</name>
                    </value>
                </entry>
                <entry>
                    <key>Validation-query</key>
                    <value>
                        <name>Validation-query</name>
                    </value>
                </entry>
                <entry>
                    <key>dbcp-min-idle-conns</key>
                    <value>
                        <name>dbcp-min-idle-conns</name>
                    </value>
                </entry>
                <entry>
                    <key>dbcp-max-idle-conns</key>
                    <value>
                        <name>dbcp-max-idle-conns</name>
                    </value>
                </entry>
                <entry>
                    <key>dbcp-max-conn-lifetime</key>
                    <value>
                        <name>dbcp-max-conn-lifetime</name>
                    </value>
                </entry>
                <entry>
                    <key>dbcp-time-between-eviction-runs</key>
                    <value>
                        <name>dbcp-time-between-eviction-runs</name>
                    </value>
                </entry>
                <entry>
                    <key>dbcp-min-evictable-idle-time</key>
                    <value>
                        <name>dbcp-min-evictable-idle-time</name>
                    </value>
                </entry>
                <entry>
                    <key>dbcp-soft-min-evictable-idle-time</key>
                    <value>
                        <name>dbcp-soft-min-evictable-idle-time</name>
                    </value>
                </entry>
            </descriptors>
            <name>DBCPConnectionPool</name>
            <persistsState>false</persistsState>
            <properties>
                <entry>
                    <key>Database Connection URL</key>
                    <value>jdbc:postgresql://postgres01:5432/RealTime</value>
                </entry>
                <entry>
                    <key>Database Driver Class Name</key>
                    <value>org.postgresql.Driver</value>
                </entry>
                <entry>
                    <key>database-driver-locations</key>
                </entry>
                <entry>
                    <key>kerberos-user-service</key>
                </entry>
                <entry>
                    <key>kerberos-credentials-service</key>
                </entry>
                <entry>
                    <key>kerberos-principal</key>
                </entry>
                <entry>
                    <key>kerberos-password</key>
                </entry>
                <entry>
                    <key>Database User</key>
                    <value>postgres</value>
                </entry>
                <entry>
                    <key>Password</key>
                </entry>
                <entry>
                    <key>Max Wait Time</key>
                    <value>500 millis</value>
                </entry>
                <entry>
                    <key>Max Total Connections</key>
                    <value>8</value>
                </entry>
                <entry>
                    <key>Validation-query</key>
                </entry>
                <entry>
                    <key>dbcp-min-idle-conns</key>
                    <value>0</value>
                </entry>
                <entry>
                    <key>dbcp-max-idle-conns</key>
                    <value>8</value>
                </entry>
                <entry>
                    <key>dbcp-max-conn-lifetime</key>
                    <value>-1</value>
                </entry>
                <entry>
                    <key>dbcp-time-between-eviction-runs</key>
                    <value>-1</value>
                </entry>
                <entry>
                    <key>dbcp-min-evictable-idle-time</key>
                    <value>30 mins</value>
                </entry>
                <entry>
                    <key>dbcp-soft-min-evictable-idle-time</key>
                    <value>-1</value>
                </entry>
            </properties>
            <state>ENABLED</state>
            <type>org.apache.nifi.dbcp.DBCPConnectionPool</type>
        </controllerServices>
        <processors>
            <id>03802f1e-b33f-340b-0000-000000000000</id>
            <parentGroupId>a2b140c6-2907-3d50-0000-000000000000</parentGroupId>
            <position>
                <x>0.0</x>
                <y>320.0</y>
            </position>
            <versionedComponentId>03802f1e-b33f-340b-935b-05d61b25f641</versionedComponentId>
            <bundle>
                <artifact>nifi-mqtt-nar</artifact>
                <group>org.apache.nifi</group>
                <version>1.20.0</version>
            </bundle>
            <config>
                <backoffMechanism>PENALIZE_FLOWFILE</backoffMechanism>
                <bulletinLevel>WARN</bulletinLevel>
                <comments></comments>
                <concurrentlySchedulableTaskCount>1</concurrentlySchedulableTaskCount>
                <descriptors>
                    <entry>
                        <key>Broker URI</key>
                        <value>
                            <name>Broker URI</name>
                        </value>
                    </entry>
                    <entry>
                        <key>MQTT Specification Version</key>
                        <value>
                            <name>MQTT Specification Version</name>
                        </value>
                    </entry>
                    <entry>
                        <key>Username</key>
                        <value>
                            <name>Username</name>
                        </value>
                    </entry>
                    <entry>
                        <key>Password</key>
                        <value>
                            <name>Password</name>
                        </value>
                    </entry>
                    <entry>
                        <key>SSL Context Service</key>
                        <value>
                            <identifiesControllerService>org.apache.nifi.ssl.SSLContextService</identifiesControllerService>
                            <name>SSL Context Service</name>
                        </value>
                    </entry>
                    <entry>
                        <key>Session state</key>
                        <value>
                            <name>Session state</name>
                        </value>
                    </entry>
                    <entry>
                        <key>Session Expiry Interval</key>
                        <value>
                            <dependencies>
<dependentValues>5</dependentValues>
<propertyName>MQTT Specification Version</propertyName>
                            </dependencies>
                            <dependencies>
<dependentValues>false</dependentValues>
<propertyName>Session state</propertyName>
                            </dependencies>
                            <name>Session Expiry Interval</name>
                        </value>
                    </entry>
                    <entry>
                        <key>Client ID</key>
                        <value>
                            <name>Client ID</name>
                        </value>
                    </entry>
                    <entry>
                        <key>Group ID</key>
                        <value>
                            <name>Group ID</name>
                        </value>
                    </entry>
                    <entry>
                        <key>Topic Filter</key>
                        <value>
                            <name>Topic Filter</name>
                        </value>
                    </entry>
                    <entry>
                        <key>Quality of Service(QoS)</key>
                        <value>
                            <name>Quality of Service(QoS)</name>
                        </value>
                    </entry>
                    <entry>
                        <key>record-reader</key>
                        <value>
                            <identifiesControllerService>org.apache.nifi.serialization.RecordReaderFactory</identifiesControllerService>
                            <name>record-reader</name>
                        </value>
                    </entry>
                    <entry>
                        <key>record-writer</key>
                        <value>
                            <identifiesControllerService>org.apache.nifi.serialization.RecordSetWriterFactory</identifiesControllerService>
                            <name>record-writer</name>
                        </value>
                    </entry>
                    <entry>
                        <key>add-attributes-as-fields</key>
                        <value>
                            <dependencies>
<propertyName>record-reader</propertyName>
                            </dependencies>
                            <name>add-attributes-as-fields</name>
                        </value>
                    </entry>
                    <entry>
                        <key>message-demarcator</key>
                        <value>
                            <name>message-demarcator</name>
                        </value>
                    </entry>
                    <entry>
                        <key>Connection Timeout (seconds)</key>
                        <value>
                            <name>Connection Timeout (seconds)</name>
                        </value>
                    </entry>
                    <entry>
                        <key>Keep Alive Interval (seconds)</key>
                        <value>
                            <name>Keep Alive Interval (seconds)</name>
                        </value>
                    </entry>
                    <entry>
                        <key>Last Will Message</key>
                        <value>
                            <name>Last Will Message</name>
                        </value>
                    </entry>
                    <entry>
                        <key>Last Will Topic</key>
                        <value>
                            <dependencies>
<propertyName>Last Will Message</propertyName>
                            </dependencies>
                            <name>Last Will Topic</name>
                        </value>
                    </entry>
                    <entry>
                        <key>Last Will Retain</key>
                        <value>
                            <dependencies>
<propertyName>Last Will Message</propertyName>
                            </dependencies>
                            <name>Last Will Retain</name>
                        </value>
                    </entry>
                    <entry>
                        <key>Last Will QoS Level</key>
                        <value>
                            <dependencies>
<propertyName>Last Will Message</propertyName>
                            </dependencies>
                            <name>Last Will QoS Level</name>
                        </value>
                    </entry>
                    <entry>
                        <key>Max Queue Size</key>
                        <value>
                            <name>Max Queue Size</name>
                        </value>
                    </entry>
                </descriptors>
                <executionNode>ALL</executionNode>
                <lossTolerant>false</lossTolerant>
                <maxBackoffPeriod>10 mins</maxBackoffPeriod>
                <penaltyDuration>30 sec</penaltyDuration>
                <properties>
                    <entry>
                        <key>Broker URI</key>
                        <value>tcp://rabbitmq01:1883</value>
                    </entry>
                    <entry>
                        <key>MQTT Specification Version</key>
                        <value>0</value>
                    </entry>
                    <entry>
                        <key>Username</key>
                    </entry>
                    <entry>
                        <key>Password</key>
                    </entry>
                    <entry>
                        <key>SSL Context Service</key>
                    </entry>
                    <entry>
                        <key>Session state</key>
                        <value>true</value>
                    </entry>
                    <entry>
                        <key>Session Expiry Interval</key>
                        <value>24 hrs</value>
                    </entry>
                    <entry>
                        <key>Client ID</key>
                        <value>nifi_room_data</value>
                    </entry>
                    <entry>
                        <key>Group ID</key>
                    </entry>
                    <entry>
                        <key>Topic Filter</key>
                        <value>room_data</value>
                    </entry>
                    <entry>
                        <key>Quality of Service(QoS)</key>
                        <value>0</value>
                    </entry>
                    <entry>
                        <key>record-reader</key>
                    </entry>
                    <entry>
                        <key>record-writer</key>
                    </entry>
                    <entry>
                        <key>add-attributes-as-fields</key>
                        <value>true</value>
                    </entry>
                    <entry>
                        <key>message-demarcator</key>
                    </entry>
                    <entry>